results/2026-03-18/bilevel_comparisons_single_period/solution_bus_motivation_c_min_max.csv
bus_id,vm_avg,z_voltage
1,1.0115019653992066,1.0
2,1.0115019773585312,1.0
3,1.011436200527621,1.0
4,1.011641081119717,1.0
5,0.0,0.0
6,1.03,1.0
7,1.0118280326308802,1.0
8,1.0139158214579354,1.0
9,1.0139158214579354,1.0
10,1.0139158214579354,1.0
11,1.0116706738151182,1.0
12,0.0,0.0
13,1.0115019653992066,1.0
14,1.0131811817100715,1.0
15,0.0,0.0
16,1.0139158214579354,1.0
17,1.0118280326308802,1.0
18,1.0115019653992066,1.0
19,1.0139158214579354,1.0
20,0.0,0.0
